[OBSERVETIME]    000:00
[TANK]
9    -1100             1
[JUNCTIONS]
3   145.00            1
5   144.7              1
[PIPES]
4   325.91            1
10   68.95            1
[JUNDEMANDS]
1   150           10
2   150          10
3   100           10
4    150          10
5    200          10
6    150          10
7     100         10
8    100          10
