[OBSERVETIME]    000:00
说明：第一列为ID，第二列为均值，第三列为标准差（平方为方差）
[TANK]
9    -1100       1
[JUNCTIONS]
3   145.00    1
5   144.7      1
[PIPES]
4   325.91   1
10   68.95     1
[JUNDEMANDS]
1   140     10
2   160     10
3   110        10
4    140        10
5    210        10
6    140        10
7     110         10
8    90       10